Circuit: * D:\Documents\GITHUB_PRIVATE_CODES\EE463_2022_TermProject\simulation\spice\gateDriver\gateDriver.asc

Direct Newton iteration for .op point succeeded.

Date: Fri Dec 02 18:02:52 2022
Total elapsed time: 0.072 seconds.

tnom = 27
temp = 27
method = modified trap
totiter = 9183
traniter = 9170
tranpoints = 3907
accept = 3339
rejected = 568
matrix size = 36
fillins = 42
solver = Normal
Matrix Compiler1: 3.42 KB object code size  0.5/0.8/[0.2]
Matrix Compiler2: 3.61 KB object code size  0.2/0.3/[0.2]

